test/data/three_phase/regulator_overhead_lines/result.csv
# result.csv run at 2000-01-01 00:00:00 EST on 19 powerflow objects (not all are nodes)
node_name,voltA_real,voltA_imag,voltB_real,voltB_imag,voltC_real,voltC_imag
n650,2401.777100,0.000000,-1200.888600,-2080.000000,-1200.888600,2080.000000
n630,2401.776631,0.000275,-1200.886745,-2079.998928,-1200.888697,2079.996174
n632,2405.241199,0.266838,-1198.047236,-2074.361348,-1187.221368,2077.409612
n633,2408.705766,0.533400,-1195.207726,-2068.723768,-1173.554039,2074.823051
n634,2412.170333,0.799963,-1192.368216,-2063.086188,-1159.886710,2072.236489
n635,2415.634900,1.066525,-1189.528707,-2057.448608,-1146.219381,2069.649928
l6321,2419.099467,1.333088,-1186.689197,-2051.811028,-1132.552052,2067.063367
